%nprocshared=8
# opt=modredundant b3lyp/6-31+g(d,p) geom=connectivity

Title Card Required

0 1
 N                  1.25363000    0.00043000    0.01562300
 N                 -0.00017700   -0.59027700    0.45201700
 N                 -1.25348500    0.00025200    0.01580000
 O                 -2.10819500   -0.84705100   -0.19661800
 O                  1.34216700    1.20337600   -0.02712400
 O                 -1.34229400    1.20332300   -0.02587600
 O                  2.10835200   -0.84708500   -0.19568600
 H                 -0.00001400   -1.57334100    0.17835000

 1 2 1.0 5 2.0 7 2.0
 2 3 1.0 8 1.0
 3 4 2.0 6 2.0
 4
 5
 6
 7
 8

B 8 7 2.261100 F

