%nprocshared=12
# opt=modredundant SCF=QC b3lyp/gen PSEUDO=READ

Title Card Required

-1 1
 Pt                 5.77400000    7.75900000    3.78900000
 Pt                 7.75900000    5.77400000    3.78900000
 Pt                 9.74400000    3.78900000    3.78900000
 Pt                 5.77400000    9.74400000    1.80400000
 Pt                 7.75900000    7.75900000    1.80400000
 Pt                 9.74400000    5.77400000    1.80400000
 Pt                11.72900000    3.78900000    1.80400000
 Pt                 7.75900000    9.74400000   -0.18100000
 Pt                 9.74400000    7.75900000   -0.18100000
 Pt                11.72900000    5.77400000   -0.18100000
 Pt                 9.74400000    9.74400000   -2.16600000
 Pt                11.72900000    7.75900000   -2.16600000
 Cl                10.43200000    8.77400000    2.26800000

X  1 F
X  2 F
X  3 F
X  4 F
X  5 F
X  6 F
X  7 F
X  8 F
X  9 F
X 10 F
X 11 F
X 12 F
X 13 F

Pt
lanL2DZ
****
Cl
6-311+g(d,p)
****

Pt 0
LANL2DZ





