%mem=800MB
# freq b3lyp/6-311g(d,p)

glycine

0 1
O       0.57461   1.25556   0.00005
O       1.67674  -0.70368  -0.00006
C      -0.74310  -0.75608   0.00009
H      -0.76118  -1.41926   0.87036
H      -0.76120  -1.41996  -0.86963
C       0.63602  -0.09910  -0.00007
H       1.49214   1.56794   0.00009
N      -1.92698   0.08533  -0.00010
H      -1.92468   0.69502   0.81084
H      -1.92453   0.69496  -0.81108





